# created with PyMOL 2.5.5
@<TRIPOS>MOLECULE
cmbrn15
53 53 1                 
SMALL
USER_CHARGES
@<TRIPOS>ATOM
1	 C01	47.292	46.158	48.676	c3	784	CMB	0.000	
2	 C02	46.253	45.987	49.816	c3	784	CMB	0.000	
3	 C03	45.027	46.844	49.615	c2	784	CMB	0.000	
4	 C04	43.783	46.599	50.075	c2	784	CMB	0.000	
5	 C05	42.642	47.541	49.724	c3	784	CMB	0.000	
6	 C06	41.465	46.906	48.964	c3	784	CMB	0.000	
7	 C07	41.853	46.104	47.750	c2	784	CMB	0.000	
8	 C08	42.219	46.565	46.538	c2	784	CMB	0.000	
9	 C09	42.603	45.593	45.434	c3	784	CMB	0.000	
10	 C10	44.116	45.509	45.155	c3	784	CMB	0.000	
11	 C11	44.901	44.870	46.272	c2	784	CMB	0.000	
12	 C12	46.203	44.521	46.239	c2	784	CMB	0.000	
13	 C13	46.852	43.894	47.459	c3	784	CMB	0.000	
14	 C14	47.859	44.800	48.191	c3	784	CMB	0.000	
15	 C15	48.449	47.109	49.054	c2	784	CMB	1.000	
16	 C16	49.617	47.188	48.084	c3	784	CMB	0.000	
17	 C17	48.914	46.982	50.496	c3	784	CMB	0.000	
18	 C18	47.096	44.707	45.045	c3	784	CMB	0.000	
19	 C19	42.277	48.021	46.167	c3	784	CMB	0.000	
20	 C20	43.424	45.443	50.969	c3	784	CMB	0.000	
21	 H04	45.161	47.758	49.037	ha	784	CMB	0.000	
22	 H09	41.836	45.020	47.866	ha	784	CMB	0.000	
23	 H14	44.363	44.670	47.198	ha	784	CMB	0.000	
24	 H01	46.807	46.617	47.805	hc	784	CMB	0.000	
25	 H02	46.697	46.251	50.782	hc	784	CMB	0.000	
26	 H03	45.951	44.938	49.889	hc	784	CMB	0.000	
27	 H05	42.260	47.982	50.654	hc	784	CMB	0.000	
28	 H06	43.020	48.388	49.134	hc	784	CMB	0.000	
29	 H07	40.749	47.688	48.683	hc	784	CMB	0.000	
30	 H08	40.912	46.244	49.643	hc	784	CMB	0.000	
31	 H10	42.090	45.896	44.512	hc	784	CMB	0.000	
32	 H11	42.224	44.587	45.660	hc	784	CMB	0.000	
33	 H12	44.513	46.512	44.960	hc	784	CMB	0.000	
34	 H13	44.249	44.915	44.244	hc	784	CMB	0.000	
35	 H15	47.372	42.980	47.142	hc	784	CMB	0.000	
36	 H16	46.087	43.555	48.165	hc	784	CMB	0.000	
37	 H17	48.711	44.986	47.525	hc	784	CMB	0.000	
38	 H18	48.253	44.238	49.047	hc	784	CMB	0.000	
39	 H19	50.575	47.193	48.612	hc	784	CMB	0.000	
40	 H20	49.634	46.303	47.438	hc	784	CMB	0.000	
41	 H21	49.563	48.073	47.444	hc	784	CMB	0.000	
42	 H22	49.141	45.937	50.733	hc	784	CMB	0.000	
43	 H23	49.839	47.546	50.656	hc	784	CMB	0.000	
44	 H24	48.159	47.339	51.201	hc	784	CMB	0.000	
45	 H25	46.586	44.373	44.136	hc	784	CMB	0.000	
46	 H26	47.390	45.750	44.889	hc	784	CMB	0.000	
47	 H27	48.017	44.126	45.160	hc	784	CMB	0.000	
48	 H28	41.277	48.395	45.927	hc	784	CMB	0.000	
49	 H29	42.676	48.607	47.001	hc	784	CMB	0.000	
50	 H30	42.916	48.218	45.302	hc	784	CMB	0.000	
51	 H31	43.237	44.542	50.376	hc	784	CMB	0.000	
52	 H32	44.206	45.211	51.697	hc	784	CMB	0.000	
53	 H33	42.520	45.677	51.542	hc	784	CMB	0.000	
@<TRIPOS>BOND
1 1 2 1
2 1 14 1
3 1 15 1
4 1 24 1
5 2 3 1
6 2 25 1
7 2 26 1
8 3 4 2
9 3 21 1
10 4 5 1
11 4 20 1
12 5 6 1
13 5 27 1
14 5 28 1
15 6 7 1
16 6 29 1
17 6 30 1
18 7 8 2
19 7 22 1
20 8 9 1
21 8 19 1
22 9 10 1
23 9 31 1
24 9 32 1
25 10 11 1
26 10 33 1
27 10 34 1
28 11 12 2
29 11 23 1
30 12 13 1
31 12 18 1
32 13 14 1
33 13 35 1
34 13 36 1
35 14 37 1
36 14 38 1
37 15 16 1
38 15 17 1
39 16 39 1
40 16 40 1
41 16 41 1
42 17 42 1
43 17 43 1
44 17 44 1
45 18 45 1
46 18 46 1
47 18 47 1
48 19 48 1
49 19 49 1
50 19 50 1
51 20 51 1
52 20 52 1
53 20 53 1
@<TRIPOS>SUBSTRUCTURE
1	CMB	1	GROUP	1 ****	CMB
